
**** 01/05/26 21:09:51 **** PSpice 23.1.0 (30 January 2024) *** ID# 0 ********

 ** Profile: "SCHEMATIC1-DC"  [ C:\Users\pedro\Documents\PESTA\P100_data_aquisiton\p100_data_aquisiton-pspicefiles\schematic1\dc.sim 


 ****     CIRCUIT DESCRIPTION


******************************************************************************




** Creating circuit file "DC.cir" 
** WARNING: THIS AUTOMATICALLY GENERATED FILE MAY BE OVERWRITTEN BY SUBSEQUENT SIMULATIONS

*Libraries: 
* Profile Libraries :
* Local Libraries :
* From [PSPICE NETLIST] section of C:\cds_spb_home\cdssetup\OrCAD_PSpiceTIPSpice_Install\23.1.0\PSpice.ini file:
.lib "nom_pspti.lib" 
.lib "nom.lib" 

*Analysis directives: 
.DC LIN PARAM T -30 120 1 
.OPTIONS ADVCONV
.OPTIONS FILEMODELSEARCH
.PROBE64 V(alias(*)) I(alias(*)) W(alias(*)) D(alias(*)) NOISE(alias(*)) 
.INC "..\SCHEMATIC1.net" 



**** INCLUDING SCHEMATIC1.net ****
* source P100_DATA_AQUISITON
.EXTERNAL OUTPUT Vtemp
V_V2         0 -VCC 12Vdc
V_V3         VCC 0 12Vdc
V_V4         3.3V 0 3.3VDC
X_U3         N04740 N04750 VCC -VCC N04823 TL084
R_R9         3.3V N04740  100 TC=0,0 
R_R10         N04740 N04823  { (1 + 0.003908 * T - 0.0000005775 * T*T) * 100 }
+  TC=0,0 
R_R11         3.3V N04750  100 TC=0,0 
R_R12         0 N04750  100 TC=0,0 
X_U4         N23832 N05628 VCC -VCC VTEMP TL084
R_R13         0 N05628  10k TC=0,0 
R_R14         N23865 N05628  2.4k TC=0,0 
R_R19         N23832 VTEMP  10k TC=0,0 
R_R20         N04823 N23832  2.4k TC=0,0 
X_U5         N24017 N23865 VCC -VCC N23865 TL084
R_R21         3.3V N24017  2.4k TC=0,0 
R_R22         0 N24017  100 TC=0,0 
X_U8         0 N29136 VCC -VCC N29557 TL084
X_U9         0 N29292 VCC -VCC N29487 TL084
X_U10         N29705 N29743 VCC -VCC N29784 TL084
R_R27         VTEMP N29136  10k TC=0,0 
R_R28         N32640 N29136  10k TC=0,0 
R_R29         VTEMP N29292  10k TC=0,0 
R_R30         N29136 N29589  10k TC=0,0 
R_R31         N29292 N29522  10k TC=0,0 
R_R32         N29589 N29705  100k TC=0,0 
R_R33         0 N29705  100k TC=0,0 
R_R34         N29743 N29522  200k TC=0,0 
R_R35         N29784 N29743  200k TC=0,0 
D_D7         N29589 N29557 BA220 
D_D8         N29557 N29136 BA220 
D_D9         N29487 N29292 BA220 
D_D10         N29522 N29487 BA220 
V_V5         0 N32640 3.3Vdc
.PARAM  t=85

**** RESUMING DC.cir ****
.END

WARNING(ORPSIM-15223): Library file C:\cds_spb_home\cdssetup\pspTILibDir\nom_pspti.lib has changed since index file nom_pspti.ind was created.

WARNING(ORPSIM-15227): The timestamp changed from Mon Dec  8 21:37:25 2025 to Mon Jan  5 20:30:12 2026.

INFO(ORPSIM-15422): Making new index file nom_pspti.ind for library file nom_pspti.lib.
b2e4e117ac3ae9d81b0a9590344b9f0be3a13d734fc0d5d3bc0ae1622ce0f1f9be7002c9257815a723e6968b7ce9d1912158f221a9c6c7f774db6896643a33b0
$CDNENCFINISH_ADV2
.ENDS
*$
.SUBCKT VC_RES1_68k     1 2     4 5
$CDNENCSTART_ADV2
17f62b1fb318c25603aeb85644ae98a5d179ef807807791f6459efacb9d7ffc37a831b146dc0f06bb1ef275619162e6d8f7ad0dc708bf15ae1a1d5bd0ae623b2
4338d7c6b789b936510049641c41694601a828b94bca95e37d9595892e84fe4adde61b3186a8a4ced614ffd7534112da752ebe196261f5fadbdc1df943f8b053
b2e4e117ac3ae9d81b0a9590344b9f0be3a13d734fc0d5d3bc0ae1622ce0f1f9be7002c9257815a723e6968b7ce9d1912158f221a9c6c7f774db6896643a33b0
$CDNENCFINISH_ADV2
.ENDS
*$
.model Mbreakp PMOS_SIMPLE 
$CDNENCSTART_ADV2
17f62b1fb318c25603aeb85644ae98a5d179ef807807791f6459efacb9d7ffc37a831b146dc0f06bb1ef275619162e6d8f7ad0dc708bf15ae1a1d5bd0ae623b2
d0a62a7eecff332c2c1a7f28e691e8355b0d507d4d4167bdded4599b6b3f07ed49ca0bf013e9ee48384f4a7c200902eb9bd5e11d04cca5bd57a5eb5ba1dfe8a6
$CDNENCFINISH_ADV2
*$

WARNING(ORPSIM-15195): Model type unknown

Index has 125448 entries from 5541 file(s).

**** 01/05/26 21:09:51 **** PSpice 23.1.0 (30 January 2024) *** ID# 0 ********

 ** Profile: "SCHEMATIC1-DC"  [ C:\Users\pedro\Documents\PESTA\P100_data_aquisiton\p100_data_aquisiton-pspicefiles\schematic1\dc.sim 


 ****     Diode MODEL PARAMETERS


******************************************************************************




               X_U3.DX         X_U4.DX         X_U5.DX         X_U8.DX         
          IS  800.000000E-18  800.000000E-18  800.000000E-18  800.000000E-18 


               X_U9.DX         X_U10.DX        
          IS  800.000000E-18  800.000000E-18 


**** 01/05/26 21:09:51 **** PSpice 23.1.0 (30 January 2024) *** ID# 0 ********

 ** Profile: "SCHEMATIC1-DC"  [ C:\Users\pedro\Documents\PESTA\P100_data_aquisiton\p100_data_aquisiton-pspicefiles\schematic1\dc.sim 


 ****     Junction FET MODEL PARAMETERS


******************************************************************************




               X_U3.JX         X_U4.JX         X_U5.JX         X_U8.JX         
               PJF             PJF             PJF             PJF             
         VTO   -1              -1              -1              -1            
        BETA  270.100000E-06  270.100000E-06  270.100000E-06  270.100000E-06 
          IS   15.000000E-12   15.000000E-12   15.000000E-12   15.000000E-12 


               X_U9.JX         X_U10.JX        
               PJF             PJF             
         VTO   -1              -1            
        BETA  270.100000E-06  270.100000E-06 
          IS   15.000000E-12   15.000000E-12 



          JOB CONCLUDED

**** 01/05/26 21:09:51 **** PSpice 23.1.0 (30 January 2024) *** ID# 0 ********

 ** Profile: "SCHEMATIC1-DC"  [ C:\Users\pedro\Documents\PESTA\P100_data_aquisiton\p100_data_aquisiton-pspicefiles\schematic1\dc.sim 


 ****     JOB STATISTICS SUMMARY


******************************************************************************



  Total job time (using Solver 1)   =       94.16
